@<TRIPOS>MOLECULE
LIG
    9     8     1     0     0
SMALL
bcc


@<TRIPOS>ATOM
      1 C           1.2820   -0.2030    0.0000 c3        1 LIG     -0.066900
      2 C1         -0.0640    0.4400    0.0000 c2        1 LIG     -0.166200
      3 C2         -1.2180   -0.2370    0.0000 c2        1 LIG     -0.226000
      4 H           1.8430    0.1060   -0.8870 hc        1 LIG      0.041033
      5 H1          1.2190   -1.2960    0.0000 hc        1 LIG      0.041033
      6 H2          1.8430    0.1060    0.8870 hc        1 LIG      0.041033
      7 H3         -0.0950    1.5260    0.0000 ha        1 LIG      0.117000
      8 H4         -2.1650    0.2910    0.0000 ha        1 LIG      0.110000
      9 H5         -1.2390   -1.3210    0.0000 ha        1 LIG      0.110000
@<TRIPOS>BOND
     1    1    2 1   
     2    1    4 1   
     3    1    5 1   
     4    1    6 1   
     5    2    3 2   
     6    2    7 1   
     7    3    8 1   
     8    3    9 1   
@<TRIPOS>SUBSTRUCTURE
     1 LIG         1 TEMP              0 ****  ****    0 ROOT
