@<TRIPOS>MOLECULE
LIG
   30    32     1     0     0
SMALL
bcc


@<TRIPOS>ATOM
      1 Cl         -1.8520   -4.1700   -0.4700 cl        1 LIG     -0.074400
      2 F           0.6250   -0.2560   -2.3270 f         1 LIG     -0.224300
      3 F1         -0.8430    1.3560   -2.2090 f         1 LIG     -0.224300
      4 F2          1.2810    1.7930   -1.9570 f         1 LIG     -0.224300
      5 O          -0.0150    1.9860    0.3760 os        1 LIG     -0.378900
      6 O1         -1.3190    3.6190    1.2220 o         1 LIG     -0.582500
      7 N          -2.2210    1.5290    1.0160 n         1 LIG     -0.474100
      8 C           3.7500   -0.7470    1.2910 cx        1 LIG     -0.082600
      9 C1          5.0240   -0.3270    0.6270 cx        1 LIG     -0.107900
     10 C2          4.5280   -1.7350    0.4800 cx        1 LIG     -0.107900
     11 C3          0.1840    0.6660   -0.2070 c3        1 LIG      0.314200
     12 C4          2.5030   -0.2520    0.7670 c1        1 LIG      0.013900
     13 C5         -0.9490   -0.2940    0.0770 ca        1 LIG     -0.175300
     14 C6          1.4630    0.1600    0.3300 c1        1 LIG     -0.204100
     15 C7         -2.1190    0.1810    0.6660 ca        1 LIG      0.107600
     16 C8          0.3160    0.8970   -1.7190 c3        1 LIG      0.626900
     17 C9         -0.8810   -1.6530   -0.2760 ca        1 LIG     -0.053000
     18 C10        -3.2030   -0.6710    0.9060 ca        1 LIG     -0.172000
     19 C11        -1.1970    2.4430    0.8810 c         1 LIG      0.843600
     20 C12        -1.9570   -2.5090   -0.0320 ca        1 LIG     -0.017600
     21 C13        -3.1180   -2.0170    0.5590 ca        1 LIG     -0.068000
     22 H           3.7840   -0.8710    2.3690 hc        1 LIG      0.103700
     23 H1          5.8910   -0.1620    1.2550 hc        1 LIG      0.081950
     24 H2          4.9800    0.3150   -0.2450 hc        1 LIG      0.081950
     25 H3          4.1510   -2.0360   -0.4910 hc        1 LIG      0.081950
     26 H4          5.0620   -2.5150    1.0100 hc        1 LIG      0.081950
     27 H5          0.0180   -2.0480   -0.7440 ha        1 LIG      0.170000
     28 H6         -3.0980    1.8500    1.4170 hn        1 LIG      0.356500
     29 H7         -4.1140   -0.2950    1.3650 ha        1 LIG      0.149000
     30 H8         -3.9650   -2.6700    0.7530 ha        1 LIG      0.156000
@<TRIPOS>BOND
     1    1   20 1   
     2    2   16 1   
     3    3   16 1   
     4    4   16 1   
     5    5   11 1   
     6    5   19 1   
     7    6   19 2   
     8    7   15 1   
     9    7   19 1   
    10    7   28 1   
    11    8    9 1   
    12    8   10 1   
    13    8   12 1   
    14    8   22 1   
    15    9   10 1   
    16    9   23 1   
    17    9   24 1   
    18   10   25 1   
    19   10   26 1   
    20   11   13 1   
    21   11   14 1   
    22   11   16 1   
    23   12   14 3   
    24   13   15 ar  
    25   13   17 ar  
    26   15   18 ar  
    27   17   20 ar  
    28   17   27 1   
    29   18   21 ar  
    30   18   29 1   
    31   20   21 ar  
    32   21   30 1   
@<TRIPOS>SUBSTRUCTURE
     1 LIG         1 TEMP              0 ****  ****    0 ROOT
