@<TRIPOS>MOLECULE
ZINC03873936
   68    72     1     0     0
SMALL
No Charge or Current Charge


@<TRIPOS>ATOM
      1 C1          6.1690    0.6140   -0.7310 c3        1 MOL     -0.185300
      2 C2          4.8120    0.0880   -0.2580 c3        1 MOL      0.028600
      3 C3          4.5310    0.6020    1.1550 c3        1 MOL     -0.181400
      4 C4          2.4580   -0.0240   -0.8150 c3        1 MOL      0.000200
      5 C5          1.4070    0.4270   -1.8320 c3        1 MOL      0.021300
      6 N1          1.3390    1.8950   -1.8450 nh        1 MOL     -0.481700
      7 C6          2.6410    2.4770   -2.1990 c3        1 MOL      0.025900
      8 C7          3.6920    2.0260   -1.1810 c3        1 MOL     -0.006000
      9 C8          0.3370    2.3430   -2.7120 ca        1 MOL      0.045600
     10 C9         -0.4280    1.4270   -3.4230 ca        1 MOL     -0.118800
     11 C10        -1.4210    1.8700   -4.2740 ca        1 MOL     -0.185600
     12 C11        -1.6470    3.2300   -4.4290 ca        1 MOL      0.132800
     13 C12        -0.8790    4.1460   -3.7240 ca        1 MOL     -0.122900
     14 C13         0.1100    3.7040   -2.8680 ca        1 MOL     -0.084300
     15 O1         -2.6210    3.6650   -5.2720 os        1 MOL     -0.297000
     16 C14        -3.3730    2.6670   -5.9650 c3        1 MOL      0.066300
     17 C15        -4.4140    3.3430   -6.8600 c3        1 MOL      0.048300
     18 H1         -3.9350    4.0370   -7.5510 h1        1 MOL      0.103300
     19 C16        -5.2450    2.2850   -7.6280 c3        1 MOL      0.020500
     20 O2         -6.4820    2.9980   -7.8650 os        1 MOL     -0.338600
     21 C17        -6.6790    3.7950   -6.6850 c3        1 MOL      0.297700
     22 O3         -5.4070    4.0210   -6.0630 os        1 MOL     -0.328400
     23 C18        -7.6010    3.0560   -5.7130 c3        1 MOL      0.112900
     24 N2         -7.8490    3.8970   -4.5400 na        1 MOL     -0.373700
     25 C19        -9.0450    4.3020   -4.0760 cc        1 MOL      0.256900
     26 N3         -8.8410    5.0360   -3.0130 nd        1 MOL     -0.537800
     27 C20        -7.5340    5.1220   -2.7670 cd        1 MOL      0.193100
     28 N4         -6.8860    4.4370   -3.6720 nc        1 MOL     -0.291600
     29 C21        -7.3000    5.1150   -7.0630 ca        1 MOL     -0.099500
     30 C22        -6.7210    6.2970   -6.6400 ca        1 MOL     -0.053900
     31 C23        -7.2890    7.5080   -6.9870 ca        1 MOL     -0.108500
     32 C24        -8.4380    7.5380   -7.7570 ca        1 MOL     -0.010200
     33 C25        -9.0180    6.3550   -8.1810 ca        1 MOL     -0.106400
     34 C26        -8.4450    5.1430   -7.8380 ca        1 MOL     -0.004200
     35 Cl1        -9.1680    3.6590   -8.3740 cl        1 MOL     -0.039500
     36 Cl2        -9.1530    9.0590   -8.1920 cl        1 MOL     -0.045700
     37 H2          6.1540    1.7040   -0.7370 hc        1 MOL      0.081500
     38 H3          6.9500    0.2650   -0.0550 hc        1 MOL      0.106700
     39 H4          6.3700    0.2480   -1.7380 hc        1 MOL      0.080300
     40 H5          4.8270   -1.0020   -0.2520 hx        1 MOL      0.136200
     41 H6          4.5160    1.6920    1.1490 hc        1 MOL      0.081600
     42 H7          3.5640    0.2280    1.4920 hc        1 MOL      0.080900
     43 H8          5.3110    0.2530    1.8310 hc        1 MOL      0.105100
     44 H9          2.1680    0.3130    0.1810 hx        1 MOL      0.141000
     45 H10         2.5310   -1.1110   -0.8250 hx        1 MOL      0.136300
     46 H11         0.4350    0.0200   -1.5550 h1        1 MOL      0.127900
     47 H12         1.6830    0.0680   -2.8240 h1        1 MOL      0.068900
     48 H13         2.9310    2.1410   -3.1940 h1        1 MOL      0.067200
     49 H14         2.5680    3.5640   -2.1880 h1        1 MOL      0.126900
     50 H15         3.4160    2.3860   -0.1900 hx        1 MOL      0.141900
     51 H16         4.6640    2.4330   -1.4580 hx        1 MOL      0.137800
     52 H17        -0.2490    0.3680   -3.3060 ha        1 MOL      0.128500
     53 H18        -2.0190    1.1580   -4.8230 ha        1 MOL      0.132000
     54 H19        -1.0560    5.2040   -3.8450 ha        1 MOL      0.140500
     55 H20         0.7070    4.4170   -2.3180 ha        1 MOL      0.134900
     56 H21        -2.7000    2.0680   -6.5800 h1        1 MOL      0.081900
     57 H22        -3.8760    2.0240   -5.2440 h1        1 MOL      0.075300
     58 H23        -4.7620    2.0180   -8.5690 h1        1 MOL      0.124100
     59 H24        -5.4140    1.4010   -7.0140 h1        1 MOL      0.084300
     60 H25        -8.5470    2.8340   -6.2070 h1        1 MOL      0.123400
     61 H26        -7.1280    2.1250   -5.3990 h1        1 MOL      0.099300
     62 H27       -10.0060    4.0630   -4.5070 h5        1 MOL      0.214600
     63 H28        -7.0840    5.6670   -1.9500 h5        1 MOL      0.214600
     64 H29        -5.8240    6.2740   -6.0380 ha        1 MOL      0.150600
     65 H30        -6.8360    8.4310   -6.6570 ha        1 MOL      0.144300
     66 H31        -9.9150    6.3780   -8.7820 ha        1 MOL      0.150400
     67 N5          3.7660    0.5500   -1.1950 n4        1 MOL     -0.395500
     68 H32         4.0050    0.2370   -2.1430 hn        1 MOL      0.424300
@<TRIPOS>BOND
     1    1    2 1   
     2    1   37 1   
     3    1   38 1   
     4    1   39 1   
     5    2    3 1   
     6    2   40 1   
     7    2   67 1   
     8    3   41 1   
     9    3   42 1   
    10    3   43 1   
    11    4    5 1   
    12    4   44 1   
    13    4   45 1   
    14    4   67 1   
    15    5    6 1   
    16    5   46 1   
    17    5   47 1   
    18    6    7 1   
    19    6    9 1   
    20    7    8 1   
    21    7   48 1   
    22    7   49 1   
    23    8   50 1   
    24    8   51 1   
    25    8   67 1   
    26    9   14 ar  
    27    9   10 ar  
    28   10   11 ar  
    29   10   52 1   
    30   11   12 ar  
    31   11   53 1   
    32   12   13 ar  
    33   12   15 1   
    34   13   14 ar  
    35   13   54 1   
    36   14   55 1   
    37   15   16 1   
    38   16   17 1   
    39   16   56 1   
    40   16   57 1   
    41   17   18 1   
    42   17   22 1   
    43   17   19 1   
    44   19   20 1   
    45   19   58 1   
    46   19   59 1   
    47   20   21 1   
    48   21   22 1   
    49   21   23 1   
    50   21   29 1   
    51   23   24 1   
    52   23   60 1   
    53   23   61 1   
    54   24   28 ar  
    55   24   25 ar  
    56   25   26 ar  
    57   25   62 1   
    58   26   27 ar  
    59   27   28 ar  
    60   27   63 1   
    61   29   34 ar  
    62   29   30 ar  
    63   30   31 ar  
    64   30   64 1   
    65   31   32 ar  
    66   31   65 1   
    67   32   33 ar  
    68   32   36 1   
    69   33   34 ar  
    70   33   66 1   
    71   34   35 1   
    72   67   68 1   
@<TRIPOS>SUBSTRUCTURE
     1 MOL         1 TEMP              0 ****  ****    0 ROOT
