@<TRIPOS>MOLECULE
ZINC03873936
   68    72     0     0     0
SMALL
USER_CHARGES

@<TRIPOS>ATOM
      1 C1          6.1690    0.6138   -0.7308 C.3       1 <0>        -0.1853
      2 C2          4.8123    0.0880   -0.2578 C.3       1 <0>         0.0286
      3 C3          4.5306    0.6021    1.1554 C.3       1 <0>        -0.1814
      4 C4          2.4581   -0.0236   -0.8148 C.3       1 <0>         0.0002
      5 C5          1.4073    0.4270   -1.8323 C.3       1 <0>         0.0213
      6 N1          1.3389    1.8949   -1.8445 N.pl3     1 <0>        -0.4817
      7 C6          2.6411    2.4770   -2.1985 C.3       1 <0>         0.0259
      8 C7          3.6918    2.0264   -1.1810 C.3       1 <0>        -0.0060
      9 C8          0.3367    2.3431   -2.7123 C.ar      1 <0>         0.0456
     10 C9         -0.4276    1.4271   -3.4228 C.ar      1 <0>        -0.1188
     11 C10        -1.4210    1.8700   -4.2740 C.ar      1 <0>        -0.1856
     12 C11        -1.6467    3.2298   -4.4289 C.ar      1 <0>         0.1328
     13 C12        -0.8795    4.1456   -3.7242 C.ar      1 <0>        -0.1229
     14 C13         0.1098    3.7042   -2.8676 C.ar      1 <0>        -0.0843
     15 O1         -2.6210    3.6653   -5.2719 O.3       1 <0>        -0.2970
     16 C14        -3.3725    2.6672   -5.9655 C.3       1 <0>         0.0663
     17 C15        -4.4141    3.3428   -6.8598 C.3       1 <0>         0.0483
     18 H1         -3.9348    4.0365   -7.5506 H         1 <0>         0.1033
     19 C16        -5.2445    2.2849   -7.6285 C.3       1 <0>         0.0205
     20 O2         -6.4825    2.9975   -7.8647 O.3       1 <0>        -0.3386
     21 C17        -6.6787    3.7946   -6.6846 C.3       1 <0>         0.2977
     22 O3         -5.4066    4.0209   -6.0634 O.3       1 <0>        -0.3284
     23 C18        -7.6012    3.0559   -5.7129 C.3       1 <0>         0.1129
     24 N2         -7.8493    3.8975   -4.5397 N.pl3     1 <0>        -0.3737
     25 C19        -9.0447    4.3016   -4.0764 C.2       1 <0>         0.2569
     26 N3         -8.8409    5.0357   -3.0128 N.2       1 <0>        -0.5378
     27 C20        -7.5341    5.1225   -2.7672 C.2       1 <0>         0.1931
     28 N4         -6.8858    4.4374   -3.6721 N.2       1 <0>        -0.2916
     29 C21        -7.2995    5.1147   -7.0627 C.ar      1 <0>        -0.0995
     30 C22        -6.7207    6.2969   -6.6401 C.ar      1 <0>        -0.0539
     31 C23        -7.2892    7.5078   -6.9868 C.ar      1 <0>        -0.1085
     32 C24        -8.4383    7.5377   -7.7573 C.ar      1 <0>        -0.0102
     33 C25        -9.0178    6.3553   -8.1805 C.ar      1 <0>        -0.1064
     34 C26        -8.4452    5.1434   -7.8375 C.ar      1 <0>        -0.0042
     35 Cl1        -9.1681    3.6590   -8.3737 Cl        1 <0>        -0.0395
     36 Cl2        -9.1526    9.0590   -8.1923 Cl        1 <0>        -0.0457
     37 H2          6.1543    1.7037   -0.7369 H         1 <0>         0.0815
     38 H3          6.9497    0.2647   -0.0549 H         1 <0>         0.1067
     39 H4          6.3697    0.2476   -1.7377 H         1 <0>         0.0803
     40 H5          4.8270   -1.0018   -0.2518 H         1 <0>         0.1362
     41 H6          4.5159    1.6920    1.1493 H         1 <0>         0.0816
     42 H7          3.5640    0.2276    1.4924 H         1 <0>         0.0809
     43 H8          5.3112    0.2531    1.8313 H         1 <0>         0.1051
     44 H9          2.1680    0.3126    0.1807 H         1 <0>         0.1410
     45 H10         2.5311   -1.1111   -0.8248 H         1 <0>         0.1363
     46 H11         0.4349    0.0200   -1.5553 H         1 <0>         0.1279
     47 H12         1.6834    0.0676   -2.8236 H         1 <0>         0.0689
     48 H13         2.9311    2.1408   -3.1940 H         1 <0>         0.0672
     49 H14         2.5681    3.5645   -2.1885 H         1 <0>         0.1269
     50 H15         3.4158    2.3859   -0.1897 H         1 <0>         0.1419
     51 H16         4.6644    2.4334   -1.4576 H         1 <0>         0.1378
     52 H17        -0.2486    0.3684   -3.3063 H         1 <0>         0.1285
     53 H18        -2.0190    1.1576   -4.8228 H         1 <0>         0.1320
     54 H19        -1.0562    5.2042   -3.8451 H         1 <0>         0.1405
     55 H20         0.7066    4.4174   -2.3184 H         1 <0>         0.1349
     56 H21        -2.7005    2.0677   -6.5795 H         1 <0>         0.0819
     57 H22        -3.8758    2.0242   -5.2435 H         1 <0>         0.0753
     58 H23        -4.7622    2.0182   -8.5689 H         1 <0>         0.1241
     59 H24        -5.4144    1.4005   -7.0143 H         1 <0>         0.0843
     60 H25        -8.5468    2.8338   -6.2073 H         1 <0>         0.1234
     61 H26        -7.1280    2.1254   -5.3990 H         1 <0>         0.0993
     62 H27       -10.0058    4.0626   -4.5073 H         1 <0>         0.2146
     63 H28        -7.0839    5.6669   -1.9503 H         1 <0>         0.2146
     64 H29        -5.8242    6.2740   -6.0384 H         1 <0>         0.1506
     65 H30        -6.8364    8.4311   -6.6566 H         1 <0>         0.1443
     66 H31        -9.9148    6.3782   -8.7816 H         1 <0>         0.1504
     67 N5          3.7662    0.5503   -1.1948 N.4       1 <0>        -0.3955
     68 H32         4.0055    0.2371   -2.1429 H         1 <0>         0.4243
@<TRIPOS>BOND
     1    1    2 1
     2    1   37 1
     3    1   38 1
     4    1   39 1
     5    2    3 1
     6    2   40 1
     7    2   67 1
     8    3   41 1
     9    3   42 1
    10    3   43 1
    11    4    5 1
    12    4   44 1
    13    4   45 1
    14    4   67 1
    15    5    6 1
    16    5   46 1
    17    5   47 1
    18    6    7 1
    19    6    9 1
    20    7    8 1
    21    7   48 1
    22    7   49 1
    23    8   50 1
    24    8   51 1
    25    8   67 1
    26    9   14 ar
    27    9   10 ar
    28   10   11 ar
    29   10   52 1
    30   11   12 ar
    31   11   53 1
    32   12   13 ar
    33   12   15 1
    34   13   14 ar
    35   13   54 1
    36   14   55 1
    37   15   16 1
    38   16   17 1
    39   16   56 1
    40   16   57 1
    41   17   18 1
    42   17   22 1
    43   17   19 1
    44   19   20 1
    45   19   58 1
    46   19   59 1
    47   20   21 1
    48   21   22 1
    49   21   23 1
    50   21   29 1
    51   23   24 1
    52   23   60 1
    53   23   61 1
    54   24   28 1
    55   24   25 1
    56   25   26 2
    57   25   62 1
    58   26   27 1
    59   27   28 2
    60   27   63 1
    61   29   34 ar
    62   29   30 ar
    63   30   31 ar
    64   30   64 1
    65   31   32 ar
    66   31   65 1
    67   32   33 ar
    68   32   36 1
    69   33   34 ar
    70   33   66 1
    71   34   35 1
    72   67   68 1
