@<TRIPOS>MOLECULE
LIG
    9     9     1     0     0
SMALL
bcc


@<TRIPOS>ATOM
      1 C           0.3190    0.8060    0.0000 cx        1 LIG     -0.136400
      2 C1         -0.8570   -0.1270    0.0000 cx        1 LIG     -0.136400
      3 C2          0.5390   -0.6790    0.0000 cx        1 LIG     -0.136400
      4 H           0.5330    1.3480   -0.9120 hc        1 LIG      0.068700
      5 H1          0.5330    1.3480    0.9120 hc        1 LIG      0.068700
      6 H2         -1.4340   -0.2130    0.9120 hc        1 LIG      0.068700
      7 H3         -1.4340   -0.2130   -0.9120 hc        1 LIG      0.068700
      8 H4          0.9010   -1.1360   -0.9120 hc        1 LIG      0.068700
      9 H5          0.9010   -1.1360    0.9120 hc        1 LIG      0.068700
@<TRIPOS>BOND
     1    1    2 1   
     2    1    3 1   
     3    1    4 1   
     4    1    5 1   
     5    2    3 1   
     6    2    6 1   
     7    2    7 1   
     8    3    8 1   
     9    3    9 1   
@<TRIPOS>SUBSTRUCTURE
     1 LIG         1 TEMP              0 ****  ****    0 ROOT
