@<TRIPOS>MOLECULE
guest
    7     6     0     0     0
SMALL
NO_CHARGES

@<TRIPOS>ATOM
1   C1   -1.6530   0.6105   1.1990   C.2     1   MOL   0.0000
2   C2   -1.0284   0.3448  -0.1340   C.3     1   MOL   0.0000
3   O1   -2.6517   0.0533   1.6296   O.co2   1   MOL   0.0000
4   O2   -0.9598   1.5616   1.8714   O.co2   1   MOL   0.0000
5   H1   -1.6066  -0.4270  -0.6631   H       1   MOL   0.0000
6   H2   -1.0239   1.2708  -0.7277   H       1   MOL   0.0000
7   H3   0.0049   -0.0044   0.0085   H       1   MOL   0.0000
@<TRIPOS>BOND
     1    1    2 1
     2    1    3 2
     3    1    4 1
     4    2    5 1
     5    2    6 1
     6    2    7 1
