@<TRIPOS>MOLECULE
guest
    7     6     1     0     0
SMALL
bcc


@<TRIPOS>ATOM
      1 C1         -1.6530    0.6110    1.1990 c         1 MOL      0.901600
      2 C2         -1.0280    0.3450   -0.1340 c3        1 MOL     -0.200100
      3 O1         -2.6520    0.0530    1.6300 o         1 MOL     -0.861300
      4 O2         -0.9600    1.5620    1.8710 o         1 MOL     -0.861300
      5 H1         -1.6070   -0.4270   -0.6630 hc        1 MOL      0.007033
      6 H2         -1.0240    1.2710   -0.7280 hc        1 MOL      0.007033
      7 H3          0.0050   -0.0040    0.0090 hc        1 MOL      0.007033
@<TRIPOS>BOND
     1    1    2 1   
     2    1    3 1   
     3    1    4 1   
     4    2    5 1   
     5    2    6 1   
     6    2    7 1   
@<TRIPOS>SUBSTRUCTURE
     1 MOL         1 TEMP              0 ****  ****    0 ROOT
